results/2026-03-03/bilevel_comparisons_single_period/solution_bus_motivation_a_proportional.csv
bus_id,vm_avg,z_voltage
1,1.0004606266330185,1.0
2,1.0004606298053706,1.0
3,1.0078068879738626,1.0
4,1.000467301415649,1.0
5,1.0078010520342617,1.0
6,1.014889156509222,1.0
7,1.004453151272837,1.0
8,1.0088126580615329,1.0
9,1.0088126580615329,1.0
10,1.0088126576742982,1.0
11,1.0004672977032911,1.0
12,1.0070499219766786,1.0
13,1.008094095707428,1.0
14,1.0044597958418977,1.0
15,1.0088126580615329,1.0
16,1.0088126580615329,1.0
